LTspice 26.0.1 for Windows
Circuit: C:\Users\Administrator\Richad\rfid\hardware\rfid.net
Start Time: Thu Apr 16 11:19:35 2026
solver = Normal
Maximum thread count: 8
tnom = 27
temp = 27
method = trap
.OP point found by inspection.
.OP point found by inspection.
Total elapsed time: 0.375 seconds.

Files loaded:
C:\Users\Administrator\Richad\rfid\hardware\rfid.net

